Version 4
SHEET 1 1220 968
WIRE 320 384 -48 384
WIRE 384 384 320 384
WIRE 512 384 384 384
WIRE 688 384 512 384
WIRE -48 416 -48 384
WIRE 384 416 384 384
WIRE 512 416 512 384
WIRE 992 416 720 416
WIRE 1072 416 992 416
WIRE 80 464 32 464
WIRE 224 464 144 464
WIRE 320 496 320 384
WIRE 992 496 992 480
WIRE 1072 496 992 496
WIRE 224 528 224 464
WIRE 384 528 384 480
WIRE 432 528 384 528
WIRE 720 528 720 416
WIRE 720 528 656 528
WIRE 992 544 992 496
WIRE -48 592 -48 496
WIRE 32 592 32 464
WIRE 320 592 320 560
WIRE 320 592 272 592
WIRE 352 592 320 592
WIRE 432 592 352 592
WIRE 736 592 656 592
WIRE 928 592 816 592
WIRE 432 656 320 656
WIRE 672 656 656 656
WIRE 32 704 32 592
WIRE 80 704 32 704
WIRE 224 704 224 656
WIRE 224 704 144 704
WIRE 432 720 416 720
WIRE 688 720 688 384
WIRE 688 720 656 720
WIRE 992 720 992 640
WIRE 992 720 688 720
WIRE 32 752 32 704
WIRE 320 752 320 656
WIRE 320 752 32 752
WIRE -48 784 -48 592
WIRE 416 784 416 720
WIRE 416 784 -48 784
WIRE 720 784 720 528
WIRE 720 784 416 784
WIRE 352 816 352 592
WIRE 672 816 672 656
WIRE 672 816 352 816
FLAG 512 416 0
SYMBOL /Misc/NE555 544 624 R180
SYMATTR InstName U1
SYMBOL /res 832 576 R90
WINDOW 0 0 56 VBottom 2
WINDOW 3 32 56 VTop 2
SYMATTR InstName R3
SYMATTR Value 220
SYMBOL /res -64 608 R270
WINDOW 0 32 56 VTop 2
WINDOW 3 0 56 VBottom 2
SYMATTR InstName R1
SYMATTR Value 1K
SYMBOL /cap 368 416 R0
SYMATTR InstName C1
SYMATTR Value 0.01µ
SYMBOL /cap 304 496 R0
WINDOW 3 20 53 Left 2
SYMATTR Value 100n
SYMATTR InstName C2
SYMBOL /diode 80 720 R270
WINDOW 0 32 32 VTop 2
WINDOW 3 0 32 VBottom 2
SYMATTR InstName D1
SYMATTR Value 1N4148
SYMBOL /diode 1008 480 R180
WINDOW 0 24 64 Left 2
WINDOW 3 24 0 Left 2
SYMATTR InstName D3
SYMATTR Value 1N4148
SYMBOL /diode 144 448 R90
WINDOW 0 0 32 VBottom 2
WINDOW 3 32 32 VTop 2
SYMATTR InstName D2
SYMATTR Value 1N4148
SYMBOL /res 1056 400 R0
SYMATTR InstName R4
SYMATTR Value 40
SYMBOL /npn 928 544 R0
SYMATTR InstName Q1
SYMATTR Value 2N2222
SYMBOL /voltage -48 512 R180
WINDOW 0 24 96 Left 2
WINDOW 3 24 16 Left 2
SYMATTR InstName V1
SYMATTR Value 12
SYMBOL potentiometer 224 544 R180
SYMATTR InstName R2
SYMATTR SpiceLine R=50k
SYMATTR SpiceLine2 wiper=0
TEXT -152 840 Left 2 !.tran 0.05s
TEXT 24 576 Left 2 ;2
TEXT 408 768 Left 2 ;1
TEXT 312 576 Left 2 ;3
TEXT 696 576 Left 2 ;4
TEXT 1000 496 Left 2 ;5
TEXT 384 512 Left 2 ;6
